notebooks/feeder_BR_13kV.dss
Clear

! Fonte (subestação upstream "infinita")
New Circuit.AlimentadorBR basekv=13.8 pu=1.00 phases=3 bus1=SE
~ MVAsc3=200 MVAsc1=180

! LineCodes — parâmetros típicos BR
! Cabo principal: 3#1/0 AWG CAA, 250 A
New Linecode.cabo_principal nphases=3 baseFreq=60
~ R1=0.7 X1=0.4 R0=1.5 X0=1.5 C1=2.0 C0=2.0 Units=km normamps=250

! Cabo ramal: 3#4 AWG CAA, 140 A
New Linecode.cabo_ramal nphases=3 baseFreq=60
~ R1=1.5 X1=0.5 R0=2.5 X0=1.7 C1=1.8 C0=1.8 Units=km normamps=140

! Linhas (topologia radial árvore)
New Line.L1  bus1=SE  bus2=B1  Linecode=cabo_principal Length=0.5 Units=km
New Line.L2  bus1=B1  bus2=B2  Linecode=cabo_principal Length=0.6 Units=km
New Line.L3  bus1=B2  bus2=B3  Linecode=cabo_principal Length=0.5 Units=km
New Line.L4  bus1=B3  bus2=B4  Linecode=cabo_principal Length=0.7 Units=km
New Line.L5  bus1=B4  bus2=B5  Linecode=cabo_principal Length=0.6 Units=km
New Line.L6  bus1=B5  bus2=B6  Linecode=cabo_ramal     Length=0.5 Units=km
New Line.L7  bus1=B2  bus2=B7  Linecode=cabo_ramal     Length=0.4 Units=km
New Line.L8  bus1=B3  bus2=B8  Linecode=cabo_ramal     Length=0.6 Units=km
New Line.L9  bus1=B4  bus2=B9  Linecode=cabo_ramal     Length=0.5 Units=km
New Line.L10 bus1=B5  bus2=B10 Linecode=cabo_ramal     Length=0.5 Units=km

! LoadShapes — curvas típicas baseadas em PRODIST e literatura
! Residencial: pico noturno (Quirós-Tortós et al., 2018)
New Loadshape.curva_residencial npts=24 interval=1 mult=(0.40 0.35 0.32 0.30 0.30 0.35 0.50 0.65 0.65 0.55 0.50 0.55 0.60 0.60 0.55 0.55 0.60 0.75 0.95 1.00 0.95 0.85 0.65 0.50)

! Comercial: pico diurno
New Loadshape.curva_comercial npts=24 interval=1 mult=(0.20 0.18 0.18 0.18 0.20 0.25 0.40 0.65 0.85 0.95 1.00 0.98 0.85 0.90 0.95 0.98 1.00 0.95 0.80 0.60 0.45 0.35 0.30 0.25)

! Cargas residenciais
New Load.LR_B1  bus1=B1  phases=3 kV=13.8 kW=400 kvar=130 daily=curva_residencial model=1
New Load.LR_B7  bus1=B7  phases=3 kV=13.8 kW=350 kvar=115 daily=curva_residencial model=1
New Load.LR_B8  bus1=B8  phases=3 kV=13.8 kW=380 kvar=125 daily=curva_residencial model=1
New Load.LR_B9  bus1=B9  phases=3 kV=13.8 kW=420 kvar=140 daily=curva_residencial model=1
New Load.LR_B10 bus1=B10 phases=3 kV=13.8 kW=300 kvar=100 daily=curva_residencial model=1

! Cargas comerciais
New Load.LC_B2  bus1=B2  phases=3 kV=13.8 kW=600 kvar=200 daily=curva_comercial model=1
New Load.LC_B3  bus1=B3  phases=3 kV=13.8 kW=700 kvar=230 daily=curva_comercial model=1
New Load.LC_B4  bus1=B4  phases=3 kV=13.8 kW=550 kvar=180 daily=curva_comercial model=1
New Load.LC_B5  bus1=B5  phases=3 kV=13.8 kW=500 kvar=165 daily=curva_comercial model=1
New Load.LC_B6  bus1=B6  phases=3 kV=13.8 kW=400 kvar=130 daily=curva_comercial model=1

Set voltagebases=[13.8]
CalcVoltageBases

New Energymeter.Med1 element=Line.L1 terminal=1